
#======================================================================
# CRYSTAL DATA
#----------------------------------------------------------------------
data_VESTA_phase_1

_chemical_name_common                  'LaBr                                  '
_cell_length_a                         3.607174
_cell_length_b                         3.607173
_cell_length_c                         18.387011
_cell_angle_alpha                      90.000000
_cell_angle_beta                       90.000000
_cell_angle_gamma                      60.000000
_cell_volume                           207.193361
_space_group_name_H-M_alt              'P 1'
_space_group_IT_number                 1

loop_
_space_group_symop_operation_xyz
   'x, y, z'

loop_
   _atom_site_label
   _atom_site_occupancy
   _atom_site_fract_x
   _atom_site_fract_y
   _atom_site_fract_z
   _atom_site_adp_type
   _atom_site_U_iso_or_equiv
   _atom_site_type_symbol
   Y1         1.0     0.666667     0.666667     0.072979    Uiso  ? Y
   Y2         1.0     0.666667     0.666667     0.593688    Uiso  ? Y
   Y3         1.0     1.000000     0.000000     0.739646    Uiso  ? Y
   Y4         1.0     0.000000     1.000000     0.260354    Uiso  ? Y
   Y5         1.0     0.333333     0.333333     0.406312    Uiso  ? Y
   Y6         1.0     0.333333     0.333333     0.927021    Uiso  ? Y
   C1         1.0     0.666667     0.666667     0.333333    Uiso  ? C
   C2         1.0     0.000000     0.000000     0.000000    Uiso  ? C
   C3         1.0     0.333333     0.333333     0.666667    Uiso  ? C
